Version 4
SHEET 1 1300 680
WIRE -640 -128 -800 -128
WIRE -496 -128 -640 -128
WIRE 112 -128 -496 -128
WIRE 448 -64 384 -64
WIRE 768 -64 528 -64
WIRE -640 -48 -640 -128
WIRE 960 -32 880 -32
WIRE 1104 -32 1024 -32
WIRE 1280 -32 1104 -32
WIRE -496 -16 -496 -128
WIRE 768 16 768 -64
WIRE 880 16 880 -32
WIRE 1104 16 1104 -32
WIRE 1280 16 1280 -32
WIRE 112 32 112 -128
WIRE -496 96 -496 64
WIRE -48 96 -496 96
WIRE 384 96 384 -64
WIRE 384 96 272 96
WIRE -496 128 -496 96
WIRE -800 160 -800 -128
WIRE -48 176 -368 176
WIRE 496 176 272 176
WIRE 768 176 768 96
WIRE -368 256 -368 176
WIRE -48 256 -288 256
WIRE 720 256 272 256
WIRE -800 272 -800 240
WIRE -288 320 -288 256
WIRE -48 336 -208 336
WIRE 768 336 768 272
WIRE 768 336 272 336
WIRE -208 384 -208 336
WIRE 496 432 496 176
WIRE 768 432 768 336
WIRE -288 448 -288 400
WIRE 48 480 48 400
WIRE -640 576 -640 16
WIRE -496 576 -496 208
WIRE -368 576 -368 336
WIRE -288 576 -288 512
WIRE -208 576 -208 448
WIRE 496 576 496 512
WIRE 768 576 768 512
WIRE 880 576 880 96
WIRE 1104 576 1104 80
WIRE 1280 576 1280 96
FLAG 48 480 0
FLAG -800 272 0
FLAG -368 576 0
FLAG -288 576 0
FLAG -208 576 0
FLAG -496 576 0
FLAG -640 576 0
FLAG 496 576 0
FLAG 768 576 0
FLAG 880 576 0
FLAG 1104 576 0
FLAG 1280 576 0
SYMBOL PowerProducts\\LT3748 112 208 R0
SYMATTR InstName U1
SYMBOL voltage -800 144 R0
SYMATTR InstName V1
SYMBOL cap -656 -48 R0
SYMATTR InstName C1
SYMBOL res -512 -32 R0
SYMATTR InstName R1
SYMBOL res -512 112 R0
SYMATTR InstName R2
SYMBOL res -384 240 R0
SYMATTR InstName R3
SYMBOL res -304 304 R0
SYMATTR InstName R4
SYMBOL cap -224 384 R0
SYMATTR InstName C2
SYMBOL cap -304 448 R0
SYMATTR InstName C3
SYMBOL res 544 -80 R90
WINDOW 0 0 56 VBottom 2
WINDOW 3 32 56 VTop 2
SYMATTR InstName R5
SYMBOL res 512 528 R180
WINDOW 0 36 76 Left 2
WINDOW 3 36 40 Left 2
SYMATTR InstName R6
SYMBOL res 1296 112 R180
WINDOW 0 36 76 Left 2
WINDOW 3 36 40 Left 2
SYMATTR InstName R7
SYMBOL res 784 528 R180
WINDOW 0 36 76 Left 2
WINDOW 3 36 40 Left 2
SYMATTR InstName R8
SYMBOL nmos 720 176 R0
SYMATTR InstName M1
SYMBOL ind2 752 0 R0
SYMATTR InstName L1
SYMATTR Type ind
SYMBOL ind2 896 112 R180
WINDOW 0 36 80 Left 2
WINDOW 3 36 40 Left 2
SYMATTR InstName L2
SYMATTR Type ind
SYMBOL diode 960 -16 R270
WINDOW 0 32 32 VTop 2
WINDOW 3 0 32 VBottom 2
SYMATTR InstName D1
SYMBOL cap 1088 16 R0
SYMATTR InstName C4
