Version 4
SHEET 1 2212 680
WIRE -816 -128 -976 -128
WIRE -672 -128 -816 -128
WIRE 112 -128 -672 -128
WIRE 768 -128 112 -128
WIRE 1424 -128 1344 -128
WIRE 1568 -128 1488 -128
WIRE 1712 -128 1632 -128
WIRE 1856 -128 1776 -128
WIRE 2016 -128 1920 -128
WIRE 2192 -128 2016 -128
WIRE 2016 -80 2016 -128
WIRE 2192 -80 2192 -128
WIRE -816 -48 -816 -128
WIRE 768 -48 768 -128
WIRE 1344 -48 1344 -128
WIRE -672 -16 -672 -128
WIRE 112 32 112 -128
WIRE -672 96 -672 64
WIRE -48 96 -672 96
WIRE 384 96 272 96
WIRE 672 96 464 96
WIRE -672 128 -672 96
WIRE 672 128 672 96
WIRE 768 128 768 32
WIRE 768 128 672 128
WIRE -976 160 -976 -128
WIRE -48 176 -512 176
WIRE 496 176 272 176
WIRE 768 176 768 128
WIRE -512 256 -512 176
WIRE -320 256 -416 256
WIRE -48 256 -320 256
WIRE 720 256 272 256
WIRE -976 272 -976 240
WIRE -320 320 -320 256
WIRE -48 336 -208 336
WIRE 768 336 768 272
WIRE 768 336 272 336
WIRE -416 368 -416 256
WIRE -208 384 -208 336
WIRE 496 432 496 176
WIRE 768 432 768 336
WIRE -320 448 -320 400
WIRE 48 480 48 400
WIRE 768 528 768 512
WIRE 1024 528 768 528
WIRE 1344 528 1344 32
WIRE 1344 528 1104 528
WIRE 2016 528 2016 -16
WIRE 2016 528 1344 528
WIRE 2192 528 2192 0
WIRE 2192 528 2016 528
WIRE 2208 528 2192 528
WIRE -416 560 -416 432
WIRE -320 560 -320 512
WIRE -320 560 -416 560
WIRE -816 576 -816 16
WIRE -672 576 -672 208
WIRE -512 576 -512 336
WIRE -208 576 -208 448
WIRE 496 576 496 512
WIRE 768 576 768 528
WIRE -320 608 -320 560
FLAG 48 480 0
FLAG -976 272 0
FLAG -512 576 0
FLAG -320 608 0
FLAG -208 576 0
FLAG -672 576 0
FLAG -816 576 0
FLAG 496 576 0
FLAG 768 576 0
SYMBOL PowerProducts\\LT3748 112 208 R0
SYMATTR InstName U1
SYMBOL voltage -976 144 R0
WINDOW 123 0 0 Left 0
WINDOW 39 24 124 Left 2
SYMATTR InstName V1
SYMATTR Value 12
SYMATTR SpiceLine Rser=10m
SYMBOL cap -832 -48 R0
SYMATTR InstName C1
SYMATTR Value 10µ
SYMBOL res -688 -32 R0
SYMATTR InstName R1
SYMATTR Value 357k
SYMBOL res -688 112 R0
SYMATTR InstName R2
SYMATTR Value 93.1k
SYMBOL res -528 240 R0
SYMATTR InstName R3
SYMATTR Value 1Meg
SYMBOL res -336 304 R0
SYMATTR InstName R4
SYMATTR Value 24.9
SYMBOL cap -224 384 R0
SYMATTR InstName C2
SYMATTR Value 0.1µ
SYMBOL cap -336 448 R0
SYMATTR InstName C3
SYMATTR Value 2.2n
SYMBOL res 480 80 R90
WINDOW 0 0 56 VBottom 2
WINDOW 3 32 56 VTop 2
SYMATTR InstName R5
SYMATTR Value 140k
SYMBOL res 512 528 R180
WINDOW 0 36 76 Left 2
WINDOW 3 36 40 Left 2
SYMATTR InstName R6
SYMATTR Value 6k
SYMBOL res 2208 16 R180
WINDOW 0 36 76 Left 2
WINDOW 3 36 40 Left 2
SYMATTR InstName R7
SYMATTR Value 500k
SYMBOL res 784 528 R180
WINDOW 0 36 76 Left 2
WINDOW 3 36 40 Left 2
SYMATTR InstName R8
SYMATTR Value 10m
SYMBOL nmos 720 176 R0
SYMATTR InstName M1
SYMATTR Value BSC027N04LS
SYMBOL ind2 752 -64 R0
SYMATTR InstName L1
SYMATTR Type ind
SYMATTR Value 19µ
SYMATTR SpiceLine Rser=0.12
SYMBOL ind2 1360 48 R180
WINDOW 0 36 80 Left 2
WINDOW 3 36 40 Left 2
SYMATTR InstName L2
SYMATTR Value 0.346
SYMATTR Type ind
SYMATTR SpiceLine Rser=8100
SYMBOL diode 1424 -112 R270
WINDOW 0 32 32 VTop 2
WINDOW 3 0 32 VBottom 2
SYMATTR InstName D1
SYMATTR Value RFN5TF8S
SYMBOL cap 2000 -80 R0
SYMATTR InstName C4
SYMATTR Value 5n
SYMBOL cap -432 368 R0
SYMATTR InstName C5
SYMATTR Value 100p
SYMBOL diode 1568 -112 R270
WINDOW 0 32 32 VTop 2
WINDOW 3 0 32 VBottom 2
SYMATTR InstName D2
SYMATTR Value RFN5TF8S
SYMBOL diode 1712 -112 R270
WINDOW 0 32 32 VTop 2
WINDOW 3 0 32 VBottom 2
SYMATTR InstName D3
SYMATTR Value RFN5TF8S
SYMBOL diode 1856 -112 R270
WINDOW 0 32 32 VTop 2
WINDOW 3 0 32 VBottom 2
SYMATTR InstName D4
SYMATTR Value RFN5TF8S
SYMBOL res 1120 512 R90
WINDOW 0 0 56 VBottom 2
WINDOW 3 32 56 VTop 2
SYMATTR InstName R9
SYMATTR Value 1m
TEXT 984 -88 Left 2 !K1 L1 L2 1
TEXT -1010 600 Left 2 !.tran 0 5m 1u 10m
